Version 4
SHEET 1 1012 680
WIRE 640 -64 592 -64
WIRE 768 -64 720 -64
WIRE 832 -64 768 -64
WIRE 1008 -64 912 -64
WIRE 256 16 224 16
WIRE 864 32 832 32
WIRE 224 48 224 16
WIRE -224 64 -256 64
WIRE -32 64 -64 64
WIRE 64 64 32 64
WIRE 192 64 64 64
WIRE 304 80 256 80
WIRE 592 80 592 -64
WIRE 592 80 304 80
WIRE 832 80 832 32
WIRE -256 96 -256 64
WIRE -64 96 -64 64
WIRE 64 96 64 64
WIRE 192 96 160 96
WIRE 768 128 768 -64
WIRE 800 128 768 128
WIRE 976 128 960 128
WIRE 1008 128 1008 -64
WIRE 1008 128 976 128
WIRE 224 144 224 112
WIRE 256 144 224 144
WIRE 800 160 464 160
WIRE 800 192 768 192
WIRE 1008 192 960 192
WIRE -256 208 -256 176
WIRE -256 208 -288 208
WIRE -64 208 -64 176
WIRE 64 208 64 176
WIRE 160 208 160 96
WIRE 192 208 160 208
WIRE 304 208 304 80
WIRE 304 208 272 208
WIRE -288 240 -288 208
WIRE -256 240 -256 208
WIRE 464 256 464 160
WIRE 832 272 832 240
WIRE 160 304 160 208
WIRE 192 304 160 304
WIRE 304 304 272 304
WIRE 304 336 304 304
WIRE -256 352 -256 320
WIRE -224 352 -256 352
WIRE 640 368 592 368
WIRE 768 368 768 192
WIRE 768 368 720 368
WIRE 832 368 768 368
WIRE 1008 368 1008 192
WIRE 1008 368 912 368
WIRE 464 384 464 336
WIRE 592 416 592 368
FLAG -64 208 0
FLAG -288 240 0
FLAG -224 64 +V
FLAG -224 352 -V
FLAG 256 144 +V
FLAG 256 16 -V
FLAG 304 336 0
FLAG 976 128 out
FLAG 64 208 0
FLAG 832 272 0
FLAG 864 32 +V
FLAG 592 416 0
FLAG 464 384 0
SYMBOL OpAmps\\ADA4528-2 224 144 M180
SYMATTR InstName U1
SYMBOL voltage -64 80 M0
WINDOW 123 0 0 Left 0
WINDOW 39 0 0 Left 0
SYMATTR InstName V1
SYMATTR Value 0V
SYMBOL voltage -256 80 R0
WINDOW 123 0 0 Left 0
WINDOW 39 0 0 Left 0
SYMATTR InstName V2
SYMATTR Value 5V
SYMBOL voltage -256 224 R0
WINDOW 123 0 0 Left 0
WINDOW 39 0 0 Left 0
SYMATTR InstName V3
SYMATTR Value 5V
SYMBOL res 288 192 R90
WINDOW 0 0 56 VBottom 2
WINDOW 3 32 56 VTop 2
SYMATTR InstName R2
SYMATTR Value 1Meg
SYMBOL res 288 288 R90
WINDOW 0 0 56 VBottom 2
WINDOW 3 32 56 VTop 2
SYMATTR InstName R3
SYMATTR Value 1R
SYMBOL cap 32 48 R90
WINDOW 0 0 32 VBottom 2
WINDOW 3 32 32 VTop 2
SYMATTR InstName C1
SYMATTR Value 1m
SYMBOL res 48 80 R0
SYMATTR InstName R1
SYMATTR Value 1k
SYMBOL OpAmps\\LTC6362 864 160 R0
SYMATTR InstName U2
SYMBOL res 928 -80 R90
WINDOW 0 0 56 VBottom 2
WINDOW 3 32 56 VTop 2
SYMATTR InstName R4
SYMATTR Value 1K
SYMBOL res 736 -80 R90
WINDOW 0 0 56 VBottom 2
WINDOW 3 32 56 VTop 2
SYMATTR InstName R5
SYMATTR Value 1K
SYMBOL res 736 352 R90
WINDOW 0 0 56 VBottom 2
WINDOW 3 32 56 VTop 2
SYMATTR InstName R6
SYMATTR Value 1K
SYMBOL res 928 352 R90
WINDOW 0 0 56 VBottom 2
WINDOW 3 32 56 VTop 2
SYMATTR InstName R7
SYMATTR Value 1K
SYMBOL voltage 464 240 R0
WINDOW 123 0 0 Left 0
WINDOW 39 0 0 Left 0
SYMATTR InstName V4
SYMATTR Value 2.5V
TEXT -144 416 Left 2 !.noise V(out) V1 dec 100 0.001 1meg
