Version 4
SHEET 1 2000 680
WIRE 528 -144 528 -176
WIRE 368 -16 208 -16
WIRE 528 -16 528 -64
WIRE 528 -16 448 -16
WIRE 592 -16 528 -16
WIRE 736 -16 672 -16
WIRE 752 -16 736 -16
WIRE 832 -16 816 -16
WIRE 944 -16 912 -16
WIRE 1040 -16 944 -16
WIRE 1152 -16 1120 -16
WIRE -496 16 -560 16
WIRE -208 16 -256 16
WIRE 816 32 816 -16
WIRE -560 64 -560 16
WIRE -256 64 -256 16
WIRE 1056 80 1008 80
WIRE 96 96 32 96
WIRE 208 96 208 -16
WIRE 208 96 160 96
WIRE 240 96 208 96
WIRE 368 96 304 96
WIRE 480 96 368 96
WIRE 656 96 608 96
WIRE 1008 128 1008 80
WIRE 608 144 608 96
WIRE 944 144 944 -16
WIRE 976 144 944 144
WIRE 32 160 32 96
WIRE 368 160 368 96
WIRE 528 160 528 -16
WIRE 576 160 528 160
WIRE 1152 160 1152 -16
WIRE 1152 160 1040 160
WIRE -256 176 -256 144
WIRE -256 176 -320 176
WIRE 752 176 752 -16
WIRE 752 176 640 176
WIRE 976 176 752 176
WIRE -560 192 -560 144
WIRE -560 192 -656 192
WIRE -320 192 -320 176
WIRE 480 192 480 96
WIRE 576 192 480 192
WIRE -256 208 -256 176
WIRE -560 224 -560 192
WIRE -656 240 -656 192
WIRE 1008 240 1008 192
WIRE 1056 240 1008 240
WIRE 608 256 608 208
WIRE 656 256 608 256
WIRE 32 272 32 240
WIRE 368 272 368 240
WIRE -256 320 -256 288
WIRE -192 320 -256 320
WIRE -560 368 -560 304
WIRE -512 368 -560 368
FLAG -320 192 0
FLAG 656 96 +2.5
FLAG 656 256 -2.5
FLAG -192 320 -2.5
FLAG -208 16 +2.5
FLAG 32 272 0
FLAG 368 272 0
FLAG 736 -16 filterout
FLAG 528 -176 0
FLAG -656 240 0
FLAG -512 368 -15
FLAG -496 16 +15
FLAG 1056 80 +2.5
FLAG 1056 240 -2.5
FLAG 816 32 0
FLAG 1152 -16 ampout
SYMBOL OpAmps\\ADA4528-2 608 112 R0
SYMATTR InstName U1
SYMBOL voltage -256 48 R0
WINDOW 123 0 0 Left 0
WINDOW 39 0 0 Left 0
SYMATTR InstName V1
SYMATTR Value 2.5
SYMBOL voltage -256 192 R0
WINDOW 123 0 0 Left 0
WINDOW 39 0 0 Left 0
SYMATTR InstName V2
SYMATTR Value 2.5
SYMBOL cap 160 80 R90
WINDOW 0 0 32 VBottom 2
WINDOW 3 32 32 VTop 2
SYMATTR InstName C1
SYMATTR Value 10m
SYMBOL cap 304 80 R90
WINDOW 0 0 32 VBottom 2
WINDOW 3 32 32 VTop 2
SYMATTR InstName C2
SYMATTR Value 10m
SYMBOL res 352 144 R0
SYMATTR InstName R2
SYMATTR Value 16K
SYMBOL res 464 -32 R90
WINDOW 0 0 56 VBottom 2
WINDOW 3 32 56 VTop 2
SYMATTR InstName R3
SYMATTR Value 16K
SYMBOL voltage 32 144 R0
WINDOW 123 24 72 Left 2
WINDOW 39 0 0 Left 0
WINDOW 3 24 44 Left 2
SYMATTR InstName V3
SYMATTR Value 1
SYMBOL res 688 -32 R90
WINDOW 0 0 56 VBottom 2
WINDOW 3 32 56 VTop 2
SYMATTR InstName R5
SYMATTR Value 330
SYMBOL res 544 -48 R180
WINDOW 0 36 76 Left 2
WINDOW 3 36 40 Left 2
SYMATTR InstName R6
SYMATTR Value 1
SYMBOL voltage -560 48 R0
WINDOW 123 0 0 Left 0
WINDOW 39 0 0 Left 0
SYMATTR InstName V4
SYMATTR Value 15
SYMBOL voltage -560 208 R0
WINDOW 123 0 0 Left 0
WINDOW 39 0 0 Left 0
SYMATTR InstName V5
SYMATTR Value 15
SYMBOL OpAmps\\ADA4528-2 1008 96 R0
SYMATTR InstName U2
SYMBOL res 1136 -32 R90
WINDOW 0 0 56 VBottom 2
WINDOW 3 32 56 VTop 2
SYMATTR InstName R1
SYMATTR Value 330
SYMBOL res 816 0 R270
WINDOW 0 32 56 VTop 2
WINDOW 3 0 56 VBottom 2
SYMATTR InstName R4
SYMATTR Value 1
TEXT 88 392 Left 2 !;ac dec 100 0.0001 100meg
TEXT 96 352 Left 2 !.noise V(ampout) V3 dec 100 0.0001 100meg
TEXT 1352 8 Left 2 ;0.01Hz cutoff RC values, peak noise density at ~10mHz\n1.0mF 16K pk. 27nV/rtHz\n2.2mF 7.5K pk. 19nV/rtHz\n4.7mF 3.3K pk. 14nV/rtHz\n10mF 1.6K pk. 12nV/rtHz
TEXT 1352 152 Left 2 ;0.001Hz cutoff RC values:\n10mF 16K\nThis gives ~6nV/rtHz noise down to 10mHz
